24|10000|Public
3000|$|... hold, {{then the}} SSS algorithm, allocating to each traffic the average rate, will <b>make</b> <b>the</b> <b>system</b> <b>stable.</b> This fact gives the {{condition}} {{on which the}} system is stable.|$|E
30|$|The {{static load}} model is used with {{steady-state}} load flow data {{such as the}} active power, reactive power, and voltages acquired by PSS/E simulations. Synchronized phasor angles of generators are also obtained from the load flow data of PSS/E, but they must be adjusted somewhat to <b>make</b> <b>the</b> <b>system</b> <b>stable.</b>|$|E
30|$|In this paper, our theorem {{conditions}} and the settling time can simply the calculation through Matlab to get the desired results. As regards references [19] and [30], our research is based on them, which can <b>make</b> <b>the</b> <b>system</b> <b>stable</b> in a shorter time. Therefore, it has higher research value in the actual system.|$|E
40|$|This paper {{presents}} a discrete-time adaptive sliding mode controller for an {{autonomous underwater vehicle}} (AUV) {{in the presence of}} parameter uncertainties and external disturbance. <b>The</b> controller <b>makes</b> <b>the</b> <b>system</b> <b>stable</b> in <b>the</b> presence of <b>system</b> uncertainties and external disturbances. The proposed algorithm has a time varying sliding surface which is obtained by parameter estimation method. The presented algorithms have been applied to the problem of depth control of an AUV. Resulting performances have been tested by Simulation...|$|R
40|$|Abstract: “Smart city ” {{construction}} {{has become the}} major trend of urban development in the world; it is the expression that city information has reached a higher stage. Smart transportation system has been considered as {{an important part of}} smart city, its stability control has become an urgent problem. The problem of robust control for a class of uncertain sys-tems with time-varying delay is considered in this paper. Based on the Lyapunov stability theorem, with the linear matrix inequality approach, a sufficient condition is given to design the robust non-fragile control to <b>make</b> <b>the</b> <b>systems</b> <b>stable...</b>|$|R
40|$|We {{consider}} open multi-class queueing networks {{with general}} arrival processes, general processing time sequences and Bernoulli routing. The network {{is assumed to}} be operating under an arbitrary work-conserving scheduling policy that <b>makes</b> <b>the</b> <b>system</b> <b>stable.</b> An example is a generalized Jackson network with load less than unity and any work conserving policy. We find a simple diffusion limit for the inter-queue flows with an explicit computable expression for the covariance matrix. Specifically, we present a simple computable expression for the asymptotic variance of arrivals (or departures) of each of the individual queues and each of the flows in the network...|$|R
40|$|Abstract. This paper {{concerns}} trajectory {{tracking control}} of AGV. The model of forked AGV was simplified from a three-wheeled vehicle model to a “bicycle ” model. The dynamic model of vehicle lateral motion was built depending on Newtown’s second {{law and the}} analysis of lateral tire forces. The optimal control linear quadratic regulator was applied to achieve trajectory tracking control. Use the MATLAB and CarSim to simulate. The satisfied results proved that the control algorithm was effective and could <b>make</b> <b>the</b> <b>system</b> <b>stable...</b>|$|E
40|$|When an {{impulsive}} {{control is}} adopted for a stochastic delay difference system (SDDS), {{there are at}} least two situations that should be contemplated. If the SDDS is stable, then what kind of impulse can the original system tolerate to keep stable? If the SDDS is unstable, then what kind of impulsive strategy should be taken to <b>make</b> <b>the</b> <b>system</b> <b>stable?</b> Using the Lyapunov-Razumikhin technique, we establish criteria for the stability of impulsive stochastic delay difference equations and these criteria answer those questions. As for applications, we consider a kind of impulsive stochastic delay difference equation and present some corollaries to our main results...|$|E
40|$|When {{a series}} {{compensated}} long transmission lines connects to a steam-turbine generator, {{it results in}} the unfavorable phenomenon called as sub-synchronous resonance (SSR). This effect results in the damage of the turbine shaft which is very dangerous. This paper mainly deals with the reduction of oscillations resulting from SSR {{in order to protect}} the steam turbine. Hence sufficient damping controllers should be employed to protect the system to go out of synchronism. For this, simple TCSC and TSSC alone are not sufficient and hence we are going for the PID damping controllers along with the Distributed Static Series Capacitors (DSSC) in order to damp out the oscillations quickly. In this paper, the PID controlled damping controllers are employed along with the DSSC to <b>make</b> <b>the</b> <b>system</b> <b>stable</b> and the simulations are carried out in MATLAB/SIMULIN...|$|E
40|$|This paper {{presents}} an adaptive sliding mode controller for an autonomous under water vehicle (AUV) {{in the presence}} of parameter uncertainties and external disturbance. <b>The</b> controller <b>makes</b> <b>the</b> <b>system</b> <b>stable</b> in <b>the</b> presence of <b>system</b> uncertainties and external disturbances. It is a discrete time sliding mode controller. The proposed algorithm has a time varying sliding surface which is obtained by parameter estimation method. A smooth saturation function for maintaining the <b>stable</b> condition of <b>the</b> <b>system</b> is used to reduce the control chatter and transient performance of <b>system.</b> <b>The</b> presented algorithms are applied to the problem of depth control of an AUV. Resulting performances are tested by simulation...|$|R
40|$|In this paper, {{the control}} problem with both {{multiple}} {{measurement and control}} packets dropouts for descriptor systems is investigated. Firstly, <b>the</b> descriptor <b>systems</b> are transferred to <b>the</b> normal <b>systems.</b> Then two independent Bernoulli distributed white sequence are {{used to describe the}} multiple measurement and control packet dropouts. An H∞ output controller is designed to <b>make</b> <b>the</b> <b>systems</b> <b>stable</b> and achieve <b>the</b> prescribed H∞ disturbance attenuation level. A sufficient condition for the existence of the dynamic output feedback controller is presented via matrix inequalities. The extended CCLM algorithm is applied to solve the parameters of the controller. Finally, an example is provided to illustrate the usefulness of the design method...|$|R
40|$|In this paper, a novel {{adaptive}} dynamic sliding mode (ADSM) fault-tolerant control (FTC) methodology {{is developed}} for near space vehicle attitude control systems with actuator faults. The proposed ADSM approach which combines dynamic sliding mode with adaptive control strategies can <b>make</b> <b>the</b> <b>systems</b> <b>stable</b> and accurately track the desired signals in presence of external disturbances, model parameter uncertainties and even actuator faults. Firstly, the faulty attitude dynamic model of X- 33 is introduced, {{and then the}} ADSM control and fault-tolerant control laws are designed for outer-loop and inner-loop respectively. Finally, simulation results are provided to show {{the effectiveness of the}} proposed FTC scheme. Jing Zhao, Bin Jiang, and Peng Shi, Xunhong l...|$|R
40|$|In this paper, an {{adaptive}} controller {{is designed for}} a UAV flight control system against faults and parametric uncertainties based on quantum information technology and the Popov hyperstability theory. First, considering the bounded control input, the state feedback controller is designed to <b>make</b> <b>the</b> <b>system</b> <b>stable.</b> The model of adaptive control is introduced to eliminate the impact by the uncertainties of system parameters via quantum information technology. Then, according to the model reference adaptive principle, {{an adaptive}} control law based on the Popov hyperstability theory is designed. This law enable better robustness of the flight control system and tracking control performances. The closed‐loop system’s stability is guaranteed by the Popov hyperstability theory. The simulation results demonstrate that a better dynamic performance of the UAV flight control system with faults and parametric uncertainties can be maintained with the proposed method...|$|E
40|$|Although it is {{well known}} that fuzzy {{learning}} controller is powerful for nonlinear systems, it is very difficult to apply a learning method if they are unstable. An unstable system diverges for impulse input. This divergence makes it difficult to learn the rules unless we can find the initial rules to <b>make</b> <b>the</b> <b>system</b> <b>stable</b> prior to learning. Therefore, we introduced LQR(Linear Quadratic Regulator) technique to stabilize the system. It is a state feedback control to move unstable poles of a linear system to stable ones. But, if the system is nonlinear or complicated to get a linear model, we cannot expect good results with only LQR. In this paper, we propose that the LQR law is derived from a roughly approximated linear model, and next the fuzzy controller is tuned by the adaptive on-line learning with the real nonlinear plant. This hybrid controller of LQR and fuzzy learning was superior to the LQR of a linearized model in unstable nonlinear systems...|$|E
40|$|For {{nonlinear}} control, {{two problems}} are usually involved: regulation and tracking. By regulation, we mean <b>make</b> <b>the</b> <b>system</b> <b>stable</b> at the equilibrium point. By tracking, we mean {{to let the}} system output track a given trajectory while maintaining stability. In this paper, we try to solve these two problems in the same framework. The idea here is to represent the original nonlinear system by the T-S fuzzy model exactly. For regulation, the PDC control laws will be derived based on LMI conditions. For tracking, the feedback linearization technique is combined with T-S model to give a fuzzy control law. The Ball and Beam, a typical nonlinear example, is used in this paper for illustration. 1 Introduction In many physical systems, nonlinearity {{are strong enough to}} prevent the successful application of linear control theory. Researchers have proposed many different nonlinear control methods, among which feedback linearization {{is one of the most}} important result[17]. However, the condition fo [...] ...|$|E
30|$|The {{effect of}} the grid {{strength}} on system stability is to increase or decrease the interaction between IM loads and TVC in the STATCOM. A stronger grid has a greater influence on the dynamics of terminal voltage magnitude. This <b>makes</b> <b>the</b> <b>system</b> more <b>stable</b> and defends against small-signal disturbances.|$|R
50|$|According to one {{macroeconomic}} model {{including a}} financial sector, hedging idiosyncratic risk can be self-defeating as {{it leads to}} higher systemic risk, as it takes on more leverage. This <b>makes</b> <b>the</b> <b>system</b> less <b>stable.</b> Thus, while securitisation in principle reduces the costs of idiosyncratic shocks it ends up amplifying systemic risks in equilibrium.|$|R
40|$|The {{objective}} {{of this paper is}} to study systematically the bifurcation and control of a single-species fish population logistic model with the invasion of alien species based on the theory of singular system and bifurcation. It regards Spartina anglica as an invasive species, which invades the fisheries and aquaculture. Firstly, the stabilities of equilibria in this model are discussed. Moreover, the sufficient conditions for existence of the trans-critical bifurcation and the singularity induced bifurcation are obtained. Secondly, the state feedback controller is designed to eliminate the unexpected singularity induced bifurcation by combining harvested effort with the purification capacity. It obviously inhibits the switch of population and <b>makes</b> <b>the</b> <b>system</b> <b>stable.</b> Finally, <b>the</b> numerical simulation is proposed to show the practical significance of the bifurcation and control from the biological point of view...|$|R
30|$|The {{dynamical}} {{behaviors of}} all nodes in complex dynamical networks {{are not always}} the same. Thus, many authors have studied the characteristics of all nodes in CDNs {{with the help of}} digital controllers, such as pinning control [18 – 21], sampled-data control [22, 23], impulsive control [24 – 26] and sliding control [27 – 30] and so on. Under an important pinning control approach, by a minimum number of controllers, the system can reached the predetermined goal. Under a sampled-data controller, the states of the control systems at sampling instants are adjusted continuously by using zero-order holder. Under an impulsive controller, states of the control systems are adjusted at discrete-time sampling instants. Under sliding control, {{in the design of the}} sliding surface, a set of specified matrices are employed to establish the connections among sliding surface corresponding to every mode. No matter what control strategy is adopted, the ultimate goal is to <b>make</b> <b>the</b> <b>system</b> <b>stable</b> and achieve our intended results. In this paper, the goal is to select suitable sliding control to synchronize complex networks with Markovian jump parameters and time delays.|$|E
40|$|Power system damping through coordinated {{design of}} power system {{stabilizer}} (pss) & {{different types of}} FACTS devices (SVC, SSSC & UPPC) is presented in this paper. In the condition of single phase fault power system stabilizer is enough to damp the oscillations for the two area system but the settling time increases for the whole system parameter, {{but in the case}} of three phase faults the whole system parameter goes into unbalanced condition and the machine losses its synchronism even in the presence of power system stabilizer, in that case PSS is not enough to suppress the faults, so the other compensator must put into action for the better stability of the two area system. PSS including with FACTS devices reduce the settling time and enhance the response time of the system for single phase faults and damp the oscillation for three phase fault and <b>make</b> <b>the</b> <b>system</b> <b>stable.</b> This paper contains coordinated simulink model of PSS & different types of FACTS devices for two area systems & checked for single phase fault and three phase fault condition with & without FACTS devices...|$|E
40|$|Autonomous road {{following}} {{is one of}} the major goals in intelligent vehicle applications. The development of an autonomous road following embedded system for intelligent vehicles is the focus of this paper. A fuzzy logic controller (FLC) is designed for vision-based autonomous road following. The stability analysis of this control system is addressed. Lyapunov's direct method is utilized to formulate a class of control laws that guarantee the convergence of the steering error. Certain requirements for the control laws are presented for designers to choose a suitable rule base for the fuzzy controller in order to <b>make</b> <b>the</b> <b>system</b> <b>stable.</b> Stability of the proposed fuzzy controller is guaranteed theoretically and also demonstrated by simulation studies and experiments. Simulations using the model of the four degree of freedom nonholonomic robotic vehicle are conducted to investigate the performance of the fuzzy controller. The proposed fuzzy controller can achieve the desired steering angle and make the robotic vehicle follow the road successfully. Experiments show that the developed intelligent vehicle is able to follow a mocked road autonomously...|$|E
30|$|This paper {{focuses on}} the problem of proportional-plus-derivative (PD) {{feedback}} H_∞ control for uncertain singular neutral <b>systems.</b> <b>The</b> parameter uncertainties are assumed to be time-varying norm-bounded and appearing not only in the state matrix but also in the derivative matrix. This paper introduces new effective criteria which <b>make</b> <b>the</b> <b>systems</b> <b>stable</b> and meet <b>the</b> H_∞ performance by PD feedback controller. Different from most existing methods, this study attempts to introduce the information between derivative matrices. Based on such an idea, the PD feedback controller for singular neutral systems is first of all proposed which <b>makes</b> <b>the</b> derivative matrices (especially neutral matrix) meet the requirement which guarantees the existence of the solution for <b>the</b> <b>system.</b> So <b>the</b> criteria in this paper are less conservative to some extent. Finally, illustrate examples are given to demonstrate the effectiveness of the proposed approach.|$|R
40|$|An n-dimensional {{linear system}} {{described}} by a rational transfer function is structurally stable by definition if the function is free from 0 on the n-D polydisc in the complex space. A system {{is said to be}} strongly stabilizable if there exists a <b>stable</b> controller that <b>makes</b> <b>the</b> <b>system</b> <b>stable.</b> A topological condition was recently derived by Shiva Shankar to determine whether a system can be strongly stabilized by a complex controller or not. However, the condition for the existence of a real controller, which is of practical importance, remained unknown. Here we for the first time give the condition for the existance of a real controller, which is a deep generalization of Youla's well known parity interlacing property of 1 -D system. Furthermore, computational methods based on the cylindrical algebraic decomposition of algebraic varieties are introduced to give solutions to related problems...|$|R
40|$|We {{consider}} {{the stability of}} robust scheduling policies for Lu-Kumar networks. These are open networks with arbitrary routing matrix and several disjoint groups of queues in which at most one queue can be served {{at a time in}} each group. The arrival and potential service processes and routing decisions at the queues are independent, stationary and ergodic. A scheduling policy is called robust if it does not depend on the arrival and service rates nor on the routing probabilities. A policy is called throughput-optimal if it <b>makes</b> <b>the</b> <b>system</b> <b>stable</b> whenever <b>the</b> parameters are such that <b>the</b> <b>system</b> can be <b>stable.</b> We propose two robust polices: longest-queue scheduling and a new policy called longest-dominating-queue scheduling. We show that longest-queue scheduling is throughput-optimal for two groups of two queues. We also prove the throughput optimality of longest-dominating-queue scheduling when the network topology is acyclic, for an arbitrary number of groups and queues...|$|R
40|$|Hot {{events on}} Internet always attract {{many people who}} usually form one or several opinion camps through discussion. For the problem of {{polarization}} in Internet group opinions, we propose a new model based on Cellular Automata by considering neighbors, opinion leaders, and external influences. Simulation results show the following: (1) It is easy to form the polarization for both continuous opinions and discrete opinions when we only consider neighbors influence, and continuous opinions are more effective in speeding the polarization of group. (2) Coevolution mechanism takes more time to <b>make</b> <b>the</b> <b>system</b> <b>stable,</b> and the global coupling mechanism leads the system to consensus. (3) Opinion leaders {{play an important role}} in the development of consensus in Internet group opinions. However, both taking the opinion leaders as zealots and taking some randomly selected individuals as zealots are not conductive to the consensus. (4) Double opinion leaders with consistent opinions will accelerate the formation of group consensus, but the opposite opinions will lead to group polarization. (5) Only small external influences can change the evolutionary direction of Internet group opinions...|$|E
40|$|The {{stability}} of a thermally stable stratified viscous electrically conducting shear flow is investigated {{in the presence}} of an impressed uniform aligned magnetic field. Only two-dimensional disturbances are studied in this paper because Squire's theorem does not apply in general, owing to the presence of the aligned magnetic field. The analysis is partly analytical and partly numerical. The asymptotic solutions for non-viscous fluid are first obtained analytically and they are then improved by introducing viscous and thermal diffusion terms (but only for Ï 1) to get a uniformly valid solution. The neutral stability curves are numerically computed for a range of values of Richardson and Stuart numbers, which show that the flow is completely stabilized when a Stuart number exceeds a certain value for a given Ri & gt; 0. It is shown that the combined effects of magnetic field and stratification is to <b>make</b> <b>the</b> <b>system</b> <b>stable</b> to two-dimensional disturbances at lower Stuart number than the one given by Stuart (1954) in the absence of thermal stratification. Â© 1985 Martinus Nijhoff Publishers...|$|E
40|$|The {{interest}} in the impact of fiscal policy lags on economic stability increased in the last decade. Several studies have been made on delays either in the government expenditure or in the tax system, where lags exist between the accrual and the payment of taxes. Nevertheless {{there is in the}} literature no model where time delays in government expenditures and in tax revenues are considered together as it happens in the real world. In this paper we remedied this defect and proposed a macro-dynamic model where two delays appear: the first pertains to the public expenditure, the second, to the tax revenue. The resulting system of delayed differential equations is studied qualitatively and numerically. The analysis suggests that only particular combinations of the two delays <b>make</b> <b>the</b> <b>system</b> <b>stable.</b> Prevalently the system is unstable and chaotic motions may arise. This implies that the economy may need appropriate structural changes in the public sector to improve fiscal policy outcomes in such a way they may really be consistent with their stabilization purposes...|$|E
40|$|Reversible zinc–pyridine {{coordination}} and hydrogen-bonding interactions {{have been used}} to assemble a [2]rotaxane from three components. Cooperativity in the macrocyclization process that results in the porphyrin dimer (see picture) <b>makes</b> <b>the</b> <b>system</b> exceptionally <b>stable.</b> However, <b>the</b> kinetic lability of the zinc–porphyrin interaction means the dimer is in dynamic equilibrium with its monomer, and this has been exploited in the construction of a [2]rotaxane...|$|R
40|$|A {{system with}} heavy tailed service {{requirements}} under heavy load having a single server, has an equilibrium waiting time distribution which is approximated by the Mittag [...] Leffler distribution. This fact is understood by a direct {{analysis of the}} weak convergence of a sequence of negative drift random walks with heavy right tail and the associated all time maxima of these random walks. This approach complements the recent transform view of Boxma and Cohen [4]. 1. Introduction. Heavy traffic limit theorems were devised to study the behavior of complex networks. For economic reasons, these systems are typically heavily loaded. If one wants to estimate the performance of such a system, a direct simulation may not be efficient, because <b>the</b> <b>system</b> parameters are near the boundary of the parameter set which <b>makes</b> <b>the</b> <b>system</b> <b>stable.</b> This means long excursions are likely. A heavy traffic limit theorem studies a sequence of systems under normalization when <b>system</b> parameters approach <b>the</b> stabil [...] ...|$|R
40|$|General {{information}} about a class of objects, such as human faces or teeth, can help to solve the otherwise ill-posed problem of reconstructing a complete surface from sparse 3 D feature points or 2 D projections of points. We present a technique that uses a vector space representation of shape (3 D Morphable Model) to infer missing vertex coordinates. Regularization derived from a statistical approach <b>makes</b> <b>the</b> <b>system</b> <b>stable</b> and robust with respect to noise by computing the optimal tradeoff between fitting quality and plausibility. We present a direct, non-iterative algorithm to calculate this optimum efficiently, and a method for simultaneously compensating unknown rigid transformations. <b>The</b> <b>system</b> is applied and evaluated in two different fields: (1) reconstruction of 3 D faces at unknown orientations from 2 D feature points at interactive rates, and (2) restoration of missing surface regions of teeth for CAD-CAM production of dental inlays and other medical applications. I...|$|R
40|$|The {{active power}} {{compensation}} {{has become the}} major concern for the power system engineers. A small change in the active power flow gives {{negative impact on the}} entire power system parameters. As the electrical power system is the most complex man made structure, hence, it’s tough to maintain consistency though out the system, all day. To <b>make</b> <b>the</b> <b>system</b> <b>stable</b> proper monitoring is required or sometimes an auxiliary system can also be a good option, which can support the primary system during undesirable conditions. The recent developments indicate, for the electric power generation, wind energy forms are being utilized in a big way. These wind farms are not only playing vital role for the energy production but also contributing for the regulation of active and reactive power flow on the grid. This paper presents active power compensation of the grid with the help of Doubly Fed Induction Generator based on Wind Turbine. In this process, two converters are connected back to back, which are known as rotor side converter and grid side converter, have been used and the controlling of stator and rotor current can be achieved by the proper functioning of these two converters...|$|E
40|$|This is the {{application}} for the RoboCup 2017 Standard Platform League from the Link¨oping Humanoids team Linköping Humanoids participated in both RoboCup 2015 and 2016 {{with the intention}} of incrementally developing a good team by learning as much as  possible. We significantly improved from 2015 to 2016, even though we still didn’t perform very well. Our main challenge is that we are building our software from the ground up using the Robot Operating System (ROS) as the integration and development infrastructure. When the system became overloaded, the ROS infrastructure became very unpredictable. This made it very hard to debug during the contest, so we basically had to remove things until the load was constantly low. Our top priority has since been to <b>make</b> <b>the</b> <b>system</b> <b>stable</b> and more resource efficient. This will take  us to the next level. From the start we have been clear that our goal is to have a competitive team by 2017 since we are developing our own software from scratch we are very well aware that we needed time to build up the competence and the software infrastructure. We believe we are making good progress towards this goal. The team of about 10 students has been very actively working during the fall with weekly workshops and bi-weekly one day hackathons...|$|E
40|$|The {{feasibility}} of using forebody tangential blowing {{to control the}} roll-yaw motion of a wind tunnel model is experimentally demonstrated. An unsteady model of the aerodynamics is developed based on the fundamental physics of the flow. Data from dynamic experiments is used to validate the aerodynamic model. A unique apparatus is designed and built that allows the wind tunnel model two degrees of freedom, roll and yaw. Dynamic experiments conducted at 45 degrees angle of attack reveal the system to be unstable. The natural motion is divergent. The aerodynamic model is incorporated into the equations of motion {{of the system and}} used for the design of closed loop control laws that <b>make</b> <b>the</b> <b>system</b> <b>stable.</b> These laws are proven through dynamic experiments in the wind tunnel using blowing as the only actuator. It is shown that asymmetric blowing is a highly non-linear effector that can be linearized by superimposing symmetric blowing. The effects of forebody tangential blowing and roll and yaw angles on the flow structure are determined through flow visualization experiments. The transient response of roll and yaw moments to a step input blowing are determined. Differences on the roll and yaw moment dependence on blowing are explained based on the physics of the phenomena...|$|E
50|$|Usually solvers try to {{find the}} unique {{stabilizing}} solution, if such a solution exists. A solution is stabilizing if using it for controlling <b>the</b> associated LQR <b>system</b> <b>makes</b> <b>the</b> closed loop <b>system</b> <b>stable.</b>|$|R