132|69|Public
2500|$|... is the <b>piezometric</b> <b>head</b> or {{hydraulic}} head (the {{sum of the}} elevation [...] and the pressure head) and ...|$|E
5000|$|... is the {{hydraulic}} head (Length in m or ft), {{also known as}} the <b>piezometric</b> <b>head.</b>|$|E
50|$|Hydraulic head or <b>piezometric</b> <b>head</b> is a {{specific}} measurement of liquid pressure above a geodetic datum.|$|E
30|$|The {{sustainable}} development in MAIWF suffers from some hydrological problems especially groundwater depletion {{as a result}} of improper groundwater exploitation policies. Both over pumping and inadequate well locations are the main causes of this problem. A trial to mitigate this problem was carried out in this paper via predicting the change in groundwater levels in the MAIWF under different water exploitation polices by applying suitable groundwater flow model (MODFLOW). The model was calibrated in steady-state condition and unsteady-state condition based on the <b>piezometric</b> <b>heads</b> at 1992 and 2006.|$|R
40|$|Presented is a {{procedure}} for incorporating solute transport as linear constraints within computer models for optimizing regional groundwater extraction strategies. The MODCON modelling procedure uses linear goal programming, embedded linearized equations for flow and solute transport and a MOC simulation model. Assumed is 2 D flow and solute transport and a dispersed conservative contaminant. The MODCON procedure develops steady groundwater extraction strategies that will satisfy future groundwater quality constraints while simultaneously causing future <b>piezometric</b> <b>heads</b> {{to be as}} close to current heads as possible. The procedure is applied to a 160 square mile area in southeastern Arkansas...|$|R
40|$|The {{ensemble}} Kalman filter (EnKF) {{is increasingly}} {{used to improve}} the real-time prediction of groundwater states and the estimation of uncertain hydraulic subsurface parameters through assimilation of measurement data like groundwater levels and concentration data. At the interface between surface water and groundwater, measured groundwater temperature data can provide an additional source of information for subsurface characterizations with EnKF. Additionally, an improved prediction of the temperature field itself is often desirable for groundwater management. In this work, we investigate the worth of a joint assimilation of hydraulic and thermal observation data on the state and parameter estimation with EnKF for two different model setups: (i) a simple synthetic model of a river-aquifer system where the parameters and simulation conditions were perfectly known and (ii) {{a model of the}} Limmat aquifer in Zurich (Switzerland) where an exhaustive set of real-world observations of groundwater levels (87) and temperatures (22) was available for assimilation (year 2007) and verification (year 2011). Results for the synthetic case suggest that a joint assimilation of <b>piezometric</b> <b>heads</b> and groundwater temperatures together with updating of uncertain hydraulic parameters gives the best estimation of states and hydraulic properties of the model. For the real-world case, the prediction of groundwater temperatures could also be improved through data assimilation with EnKF. For the validation period, it was found that parameter fields updated with <b>piezometric</b> <b>heads</b> reduced RMSE's of states significantly (heads − 49 %, temperature − 15 %), but an additional conditioning of parameters on groundwater temperatures only influenced the characterization of the temperature field...|$|R
5000|$|... is the <b>piezometric</b> <b>head</b> or {{hydraulic}} head (the {{sum of the}} elevation [...] and the pressure head) and ...|$|E
50|$|In 2013-2014 Atangana et al. {{described}} some {{groundwater flow}} problems using {{the concept of}} derivative with fractional order. In these works, The classical Darcy law is generalized by regarding the water flow {{as a function of}} a non-integer order derivative of the <b>piezometric</b> <b>head.</b> This generalized law and the law of conservation of mass are then used to derive a new equation for groundwater flow.|$|E
5000|$|A {{piezometer}} {{is either}} a device used to measure liquid pressure in a system by measuring the height to which a column of the liquid rises against gravity, or a device which measures the pressure (more precisely, the <b>piezometric</b> <b>head)</b> of groundwater [...] at a specific point. A piezometer is designed to measure static pressures, and thus differs from a pitot tube by not being pointed into the fluid flow.|$|E
40|$|Coastal {{aquifers}} salinization is {{an urgent}} problem driven by groundwater resources overexploitation and climate changes. This phenomenon is enhanced in areas lying below the sea level, like the Po river lowland (Italy). In these reclaimed lands the saltwater intrusion is usually {{stopped by a}} dense canals network that supply freshwater to agricultural lands, maintaining soil salinity at acceptable levels. 2012 was a terrible year for irrigation, since the whole Po river plain experienced a prolonged drought. Despite of this, a continuous monitoring of <b>piezometric</b> <b>heads</b> and salinity near a canal demonstrated that freshening was occurring in the first 4 m of the unconfined aquifer. The unconfined aquifer is characterized by elevated relic salinity, especially in its bottom part. A two-dimensional model, implemented via SEAWAT 4. 0, was calibrated using <b>piezometric</b> <b>heads</b> and salinity depth profiles in a section perpendicular to the canal. The calibrated model was then used to forecast the behaviour of this cross section using a multiple scenario approach: increase of evapotranspiration induced by temperature raise, onset of extreme events in the temporal distribution of rainfall and managed canal dry up due to salinization of surface water. The first two scenarios have only minor influence on the aquifer salinization rate, while the third one could create serious upconing of the high salinity groundwater actually residing {{in the bottom of}} the unconfined aquifer. The scenario modelling quantified the possible future effects on groundwater salinization and could be useful to find adaptation strategies to manage the water resources of this area...|$|R
40|$|In 2003, Crenshaw and Santi {{developed}} {{a method for}} calculating average <b>piezometric</b> <b>heads</b> between horizon-tal drains in a slope. The method relies on drain flow rates, slope geometry, and soil hydraulic conductivity. The corrugated shape of groundwater profiles between drains and {{the departure of the}} groundwater surface from the drain near its uphill end were verified using laboratory-scale physical and computer modeling. In 2007, a study was conducted seeking to confirm these findings using field-scale modeling. The test site con-sists of a 2 H: 1 V (2 horizontal: 1 vertical), 30 3 12 ft (9. 1 3 3. 7 m) concrete slope representing low-perme-ability bedrock. Five perforated pipes embedded in the concrete are used to simulate base-flow recharge. The concrete was covered with a lean clay, and two wick drains were installed at a spacing of 8 ft (2. 4 m). Fifty standpipe piezometers were installed to measure ground-water profiles between and along drains. Measurements were taken during recharge and drawdown events. The test was repeated with a clayey sand. Test results generally confirm the findings of Crenshaw and Santi, with some localized variations in groundwater profiles. The variations are most likely due to factors such as heterogeneous soil properties, the development of preferential pathways, boundary effects, etc. Field-testing also yielded additional information about the behavior of drained slopes that may be useful for future slope-stability projects. As a result of this research, recommendations for using Crenshaw and Santi’s method to estimate <b>piezometric</b> <b>heads</b> between short, high-angle sub-horizontal drains in shallow landslides for use in slope-stability analyses are provided...|$|R
40|$|The present {{dissertation}} embodies {{research work}} pertaining to two broad categories of groundwater flow problems, i. e. identification of parameters and simulation of groundwater flow. The first category, i. e. the identification problems, researched and {{presented in this}} dissertation include: identification of aquifer parameters i. e. Storage coefficient, S, and Transmissivity, T; and identification of well hydraulic parameters i. e. the formation loss coefficient, entry loss coefficient and turbulence loss coefficient. In the first attempt, a formulation is developed in framework of Genetic Algorithm (GA) and a computer model is developed, which inversely and optimally identifies aquifer parameters, Transmissivity and Storativity. The model and its formulation are validated by comparing the model results with the ones obtained through the Theis conventional approach and also with the prototype data. Minimization of the objective function logically convinces towards substantiation of the solution obtained {{in the framework of}} GA technique. Next, an optimal identification of the well hydraulic parameters, i. e., formation loss coefficient, entry loss coefficient, turbulence loss coefficient, and eventually determination of well efficiency, is achieved. Jacob’s equation is formulated in the framework of GA, which ultimately resulted {{in the development of a}} computer model coded in C++ language. The parameters are identified through minimization of an objective function. Moreover, validity of the model is also endorsed on the basis of statistical analysis while comparing simulated drawdowns against the observed ones. Through the present research, Jacob and Singh’s assumptions for constant value of turbulence loss coefficient is found misleading; whereas, Rorabaugh and Todd’s opinion is ascertained. Hence, it may be concluded that, the formulation made in the sense of GA technique and the computer model developed in this study, are valid enough to use. Under the second category, i. e. simulation of groundwater flow, firstly a twodimensional simulation of steady-state groundwater flow in an unconfined aquifer is carried out. A computer model in the framework of FEM is developed, coded in FORTRAN language, and applied to a real field problem consisting of twodimensional horizontal domain for prediction of <b>piezometric</b> <b>heads,</b> flow field under the most drought period of the year. The results are substantiated on the basis of minimization of residuals between observed and simulated <b>piezometric</b> <b>heads</b> at the Dirichlet points. Furthermore, the model estimates the effective lift and accordingly a tubewell zoning map is prepared, which is deemed to be a good tool for guidance of irrigation practitioners to opt for appropriate tubewell technology by signifying the proper locations. Lastly, a two-dimensional equation of mass conservation; governing saturated groundwater flow under transient conditions in a confined aquifer is simulated with source or sink terms by developing a computer model, coded in FORTRAN language, in the framework of FEM. While employing FEM in spatial sense, weighted residual technique is used as per Galerkin’s approach; whereas time derivative is solved by using interpolation functions and lumped element type scheme of Crank-Nicholson. The model is implemented to a real field problem consisting of two-dimensional horizontal domain together with a sink penetrating fully into a confined aquifer for prediction of <b>piezometric</b> <b>heads</b> (equipotential lines) and thereby by formation of cone of depression, distribution of flow field signifying stream lines with velocity vectors and determination of the radius of influence of the well when it achieves stationary condition. The simulated results are substantiated on the basis of minimization of residuals between observed and simulated <b>piezometric</b> <b>heads.</b> Performance of the model, tested statistically, rank the model very satisfactory...|$|R
5000|$|The {{standard}} method for measuring {{pore water pressure}} below the water table employs a piezometer, which measures the height to which a column of the liquid rises against gravity; i.e., the static pressure (or <b>piezometric</b> <b>head)</b> of groundwater at a specific depth. Piezometers often employ electronic pressure transducers to provide data. The United States Bureau of Reclamation has a standard for monitoring water pressure in a rock mass with piezometers. It sites ASTM D4750, [...] "Standard Test Method for Determining Subsurface Liquid Levels in a Borehole or Monitoring Well (Observation Well)".|$|E
40|$|Abstract: In this paper. the {{dispersion}} of waste-waters in porous media by number of recharge wells penetrating a confined aquifer is studied by solving the differential equations {{through the use}} of finite difference technique. The mathematical model adopted comprises three non-linear differential equations; the first represents the <b>piezometric</b> <b>head,</b> the second for pore water velocity and the third one for the {{dispersion of}} waste concentration. The model has been developed to determine the distribution of the <b>piezometric</b> <b>head,</b> the pore velocity and the concentration of wastes at any position in the field of multi-recharged wells. The numerical results illustrate the dependence of the <b>piezometric</b> <b>head</b> and the relative concentration on the dimensionless time-parameter and the transmissibility-parameter. The number of recharge wells has noticeable influence on the concentration of wastes at a point in the field of interference...|$|E
40|$|The {{objective}} of inverse aquifer modeling is {{to estimate the}} aquifer parameters from discrete measurements of <b>piezometric</b> <b>head.</b> Transmissivity is an important parameter in aquifer modeling that is highly variable in space. The <b>piezometric</b> <b>head</b> measurements {{on the other hand}} are finite and often contaminated with errors. By parameterizing transmissivity variability in terms of few parameters assists transmissivity estimators to learn from useful information contained in the data and limits the influence of the errors. Three different parameterizations based on spatial interpolation are presented, and their characteristics and effectiveness are assessed in a simulation case study...|$|E
40|$|Proposes {{a finite}} {{difference}} method which consists in a two-step procedure: a preliminary estimation is made of the <b>piezometric</b> <b>heads</b> and {{the heads of the}} bottom of the aquifer in a subdomain of the grid where enough measurements are available. These estimates are computed using a stochastic interpolation method. The resulting values are then used as data in a second step, in which a quadratic cost functional is minimized under the constraint that the flow equation be satisfied. This cost functional is defined from physically plausible hypotheses on the aquifer structure. The different steps of the method are described and an application to the Dyle basin is presented to illustrate the method. Anglai...|$|R
40|$|Hydraulic {{transients}} in {{hydropower plant}} Jajce II (Bosnia and Herzegovina) were simulated with 1 D unsteady pipe flow model. High {{accuracy of the}} model was accomplished {{with the use of}} non-conservative formulation of an unsteady pipe flow model incorporating a modified instantaneous acceleration-based unsteady friction model and second order flux limited numerical scheme. In order to apply the model, complex dual surge tank geometry needed to be represented with a unified surge tank. The numerical model was validated against the measured data on three simulation scenarios, defined with different turbine discharge reductions. Simulation results show a very good agreement between the computed and measured <b>piezometric</b> <b>heads,</b> both in amplitude and frequency of the oscillation...|$|R
40|$|Gradually varied {{unsteady}} flow in water distribution networks is studied using the Gradient Method and the Newton-Raphson Solution Technique. The Gradient Algorithm has shown robust behavior when run with examples simulating different operational situations. In {{the attempt to}} obtain solutions rapidly, a computer program has been developed in FORTRAN 77. The computer program developed herein is general, easy to use, and allows a dynamic analysis of complex looped and open water distribution networks. <b>Piezometric</b> <b>heads</b> at nodes and flow rates in pipes are computed for water distribution networks. Results obtained from the Gradient Method are compared with an existing dynamic model. The benefits of using the Gradient Algorithm appear to be flexibility in coding, versatility in operational conditions, and its application to complicated water distribution networks...|$|R
40|$|International audienceTo {{assess whether}} the hydrometric level of an {{artificial}} lake in a quarry near Milan (Italy) could be assigned as a Dirichlet boundary {{condition for the}} phreatic aquifer in a fine scale groundwater flow model, hydrological measurements of <b>piezometric</b> <b>head</b> and rainfall rate time series have been analysed by spectral and statistical methods. The <b>piezometric</b> <b>head</b> close to the quarry lake proved to be well correlated with seasonal variations in the rainfall. Furthermore, geoelectrical tomography detected no semi-permeable layer between the phreatic aquifer and the lake, so the contact between surface and ground water is good. Finally, a time-varying prescribed head condition can be applied for ground water flow modelling...|$|E
40|$|To {{assess whether}} the hydrometric level of an {{artificial}} lake in a quarry near Milan (Italy) could be assigned as a Dirichlet boundary {{condition for the}} phreatic aquifer in a fine scale groundwater flow model, hydrological measurements of <b>piezometric</b> <b>head</b> and rainfall rate time series have been analysed by spectral and statistical methods. The <b>piezometric</b> <b>head</b> close to the quarry lake proved to be well correlated with seasonal variations in the rainfall. Furthermore, geoelectrical tomography detected no semi-permeable layer between the phreatic aquifer and the lake, so the contact between surface and ground water is good. Finally, a time-varying prescribed head condition can be applied for ground water flow modelling. Keywords: ground water flow, boundary conditions, surface and ground water interactions, geoelectrical tomography, statistical analysis...|$|E
40|$|Seasonal {{changes in}} the volume of near-surface water cause {{synchronous}} {{changes in the}} <b>piezometric</b> <b>head</b> of any deeper confined aquifer exhibiting a barometric response. Such loading-induced head changes occur independently of recharge effects. Time series models applied to confined-aquifer piezometric sequences may give erroneous results unless prior data adjustment is made to allow for water loading effects...|$|E
40|$|A {{three-dimensional}} numerical {{groundwater flow}} model {{was developed in}} conjunction with Geographic Information System (GIS) and Remote sensing (RS) techniques for Upper Chaj Doab area of Indus basin, Pakistan. The approach has provided efficient way of analyzing and monitoring groundwater resource of the area. The GIS was used as additive tool to develop supportive data for numerical groundwater flow modeling, integration, analysis and presentation of image processing and modeling results. The thematic layers of landforms, landuse, hydrology, infrastructure and climate were developed using Geographic Information System (GIS). The RS data was used to analysis surface hydrological conditions and landcover/landuse status in order to conceptualize the recharge/discharge sources involved in groundwater system and to observe the behaviour of waterlogging and salinity in the area. A steady-state model was calibrated for 1985 hydrologic conditions when water levels in the aquifer were near equilibrium. The model was calibrated to an average residual of 0. 06 m and variance of 1. 46 m using automatic parameter method - PEST. The model was calibrated again in transient-state condition over a six-month period of wet period using steady-state heads as initial condition. Using the model, values of recharge, hydraulic conductivity and specific yield were calibrated for the aquifer. The calibrated model was used to predict future changes in <b>piezometric</b> <b>heads</b> from year 2006 to 2020. The <b>piezometric</b> <b>heads</b> indicated initially a rising trend from 1988 to 1999, then a declining trend from 1999 onward from where a breakthrough in watertable trend was observed. The groundwater development was studied under different scenarios of extreme drought and flood conditions, and variable rates of groundwater abstraction. Finally, based on the results, better strategies for groundwater planning and management have been outlined...|$|R
40|$|The coastal aquifer {{salinization}} is {{an urgent}} problem caused by groundwater resources overexploitation and climate change. This phenomenon is enhanced in areas lying below the sea level, like the polders in the Netherlands or the Po River lowland in Italy. In these reclaimed lands the saltwater intrusion is usually {{controlled by a}} network of irrigation canals that supplies freshwater to the shallow aquifer, maintaining soil salinity at acceptable levels. The 2012 was dramatic in terms of agricultural water supply, since the Po River plain experienced a prolonged drought. Despite this, continuous monitoring of <b>piezometric</b> <b>heads</b> and total dissolved solids (TDS) near a canal (Canale della Gronda) demonstrated that freshening was occurring in the shallow portion (first 4 m) of the unconfined aquifer, while the bottom part was characterized by elevated relic salinity. The two-dimensional model SEAWAT was calibrated using <b>piezometric</b> <b>heads</b> and TDS depth profiles measured along a transect perpendicular to the canal. The calibrated model was then used to predict the behaviour of this cross section using a multiple scenario approach: increase in evapotranspiration induced by temperature increase; increase {{in the frequency of}} extreme high rainfall events; extreme drought conditions; and canal dewatering due to salinization of the water courses. Moreover, for each scenario, two sub-scenarios were run to account for projected sea level rise. The first three scenarios had only a minor influence on the aquifer salinization rate, while the fourth one predicted serious upward flux of the high salinity groundwater actually residing {{in the bottom of the}} unconfined aquifer. The scenarios quantified the possible future effects on groundwater salinization and could be useful to find adaptation strategies to manage the water resources of this and similar areas...|$|R
40|$|Delineation of {{protection}} zones is {{performed by the}} use of stochastic simulations integrating all available data. In practice, due to the few available measurements of the main parameters, it can be very useful to integrate other data to reduce the uncertainty of the results. Most of the solute spreading is governed by the hydraulic conductivity (K) spatial variability at different scales. A stochastic approach adding measured <b>piezometric</b> <b>heads</b> and electrical resistivity data is presented. Results are discussed on a synthetic and on a practical case. Delineating the ‘Capture zone Probability Distribution’ (CaPD) for a given time, it is shown how the uncertainty can be reduced. The methodology can be used in real applications when little or no information is available about the hydraulic properties, through the conditioning on other data sets...|$|R
40|$|International audienceWe {{investigate}} {{the ability of}} combining the Karhunen-Loève transform (KLT) with the kriging method to extract regional information from a set of point measurements. This method was applied {{to a set of}} 195 <b>piezometric</b> <b>head</b> time series over a period of 17 years from observation wells distributed within the French and German area of the Rhine valley alluvial groundwater body. <b>Piezometric</b> <b>head</b> time series are analyzed with KLT in order to highlight characteristic temporal signals, classified from the most energetic (global) to the least energetic (local) signals. The first five signals amount to 80 % of the global variance of the system and are inferred to represent different hydrological contributions (exchanges with rivers and rainfall), but they also represent a significant anthropogenic component. Kriging is then used to regionalize the signals and to build a reconstruction model of the behavior of the whole aquifer containing only filtered information coming from identified source signals...|$|E
40|$|This report {{evaluates the}} {{influence}} of strip mining features, commonly found in the Northern Great Plains Coal Region, on ground-water hydrology. The features examined are: reclaimed mine geometry, relative transmissivity between the reclaimed spoil and the surround-ing unmined coal bed aquifer, anisotropy, the gravity sorted rubble layer, coal wedges left between trench cuts, and the position and size of an operational mine in the regional flow system. A finite element computer model was used to simulate the ground-water flow field from three frames of reference: a local plan view of the mine site (local hydrology), a cross sectional view of flow through the reclaimed mine interior (interior flow), and a cross sectional view of a regional flow system (regional hydrology). The simulation model solved for the <b>piezometric</b> <b>head</b> distribution in each system. For each simulation the <b>piezometric</b> <b>head</b> contours were plotted, and in some cases, the increase in flux induced by the min...|$|E
40|$|The <b>piezometric</b> <b>head</b> in {{artesian}} groundwater oscillates remarkably due to oceanic tide. As is well known, {{the effect}} of the tide on the <b>piezometric</b> <b>head</b> prevails even in far inland. The artesian groundwater is generally a very good source of drinking water, because of the purification properties of the soils; it is also used for irrigation, and, where surface water is scarce, for industrial purposes. A large quantity of discharge from an aquifer produces a reduction in water pressure and therefore, at the same time, an increase in the effective stress in the soil skeleton of the porous medium. The latter produces land subsidence (or consolidation) and sea water may infiltrate into artesian groundwater. It is necessary to study the characteristics of the littoral artesian groundwater flow for preventing these groundwater pollution. In this paper we will solve the differential equation for unsteady artesian groundwater flow under various boundary conditions that correspond to the geological structure in the littoral zone...|$|E
40|$|The {{characteristics}} of over fifty shallow overflowing artesian boreholes in the Chalk at twelve watercress farms in Hamp-shire {{have been studied}} {{as part of the}} monitoring programme for a river augmentation scheme. The boreholes are mainly 150 and 200 mm in diameter and are relatively shallow, with 90 percent of them less than 40 m in depth. Artesian flows of all the boreholes in the period 1972 - 75 averaged 12 litres per second and in one case exceeded 40 litres per second. Flow and caliper logging show their flows are concentrated in discrete fissures, and a number of distinct fissure levels can be identified over a wide area. Analysis of <b>piezometric</b> <b>heads</b> and artesian flows show that ground-water flow is concen-trated in a narrow width of aquifer of high permeability...|$|R
40|$|The hydro-geological {{conditions}} of Tomsk {{are determined by}} both natural factors {{and the impact of}} the urban infrastructure. Important impact on subsurface water flows involves the complex hydraulic relationship of several geological layers and the ancient and modern relief. Increasing groundwater abstraction has generally led to lowered <b>piezometric</b> <b>heads</b> in the deeper aquifer horizons, while in the uppermost horizons, rises in the water table and formation of new perched water tables are experienced due to leaking pipes and impedance of groundwater flow by deep foundations. In this paper special attention is paid to the Quaternary aquifer complex. Barrage effects of pile foundations and the intensive development of perched water distributed on flat surfaces of the watersheds and high terraces, complicated conditions for the construction and operation of facilities, leading in some cases to emergency situations...|$|R
40|$|Many {{coastal regions}} in the world {{experience}} an intensive salt water intrusion in aquifers due to natural and anthropogenic causes. The salinisation of these groundwater systems {{can lead to a}} severe deterioration of the quality of existing fresh groundwater resources. In this paper, the characteristics of variable-density groundwater flow and the concept of an interface between fresh and saline groundwater are introduced. Problems associated with these groundwater resources are discussed, such as upconing of saline groundwater caused by excessive overpumping and salt water intrusion caused by global mean sea level rise. Possible human activities to compensate and control the salinisation of coastal aquifers are presented. Most countermeasures appear to be expensive, laborious and should be taken in time. Finally, the effect of lowering <b>piezometric</b> <b>heads</b> on the salinisation of the subsoil is illustrated in a Dutch aquifer system...|$|R