98|10000|Public
5|$|Geyser activity, {{like all}} hot spring activity, {{is caused by}} surface water {{gradually}} seeping down through the ground until it meets rock heated by magma. The geothermally heated water then rises back toward the surface by convection through <b>porous</b> <b>and</b> <b>fractured</b> rocks. Geysers differ from non-eruptive hot springs in their subterranean structure; many consist of a small vent at the surface connected {{to one or more}} narrow tubes that lead to underground reservoirs of water and pressure tight rock.|$|E
2500|$|Finite Element {{programs}} are more flexible in design (triangular elements vs. the block elements most finite difference models use) {{and there are}} some programs available (SUTRA, a 2D or 3D density-dependent flow model by the USGS; Hydrus, a commercial unsaturated flow model; FEFLOW, a commercial modelling environment for subsurface flow, solute and heat transport processes; OpenGeoSys, a scientific open-source project for thermo-hydro-mechanical-chemical (THMC) processes in <b>porous</b> <b>and</b> <b>fractured</b> media; COMSOL Multiphysics (FEMLAB) a commercial general modelling environment), FEATool Multiphysics, an easy to use Matlab simulation toolbox, and Integrated Water Flow Model (IWFM), but they are still not as popular in with practicing hydrogeologists as MODFLOW is. [...] Finite element models are more popular in university and laboratory environments, where specialized models solve non-standard forms of the flow equation (unsaturated flow, density dependent flow, coupled heat and groundwater flow, etc.) ...|$|E
50|$|The Formation is {{composed}} of limestone and dolomite with minor argillaceous dolomite, siltstone and shale. Anhydrite and anhydritic dolomite occur in the upper part (Hondo Member) {{in the west and}} south. <b>Porous</b> <b>and</b> <b>fractured</b> dolomite is predominant in the eastern extent of the Formation.|$|E
40|$|Borehole {{waves are}} {{strongly}} affected by adjacent porous zones or by fractures intersecting the borehole. A theoretical description for both <b>porous</b> <b>and</b> <b>fracture</b> zones is possible {{based on the}} introduction of an effective borehole fluid bulk modulus, characterizing the wave attenuation via borehole wall impedance. This impedance can be calculated for both <b>porous</b> <b>and</b> <b>fracture</b> zones adjacent to the borehole, thus predicting borehole wave attenuation, transmission, and reflection over such zones. A shock tube setup generates borehole tube waves that are used for <b>porous</b> <b>and</b> <b>fracture</b> zone characterization. A PVC sample is used to introduce <b>and</b> vary <b>fractures</b> in a cylindrical sample. Shock wave experiments show that attenuation in boreholes adjacent to porous zones can be predicted by theory. The transmittivities of a borehole tube wave over 1 <b>and</b> 5 ?mm <b>fractures</b> are correctly predicted, thus showing the potential of borehole wave experiments for <b>fracture</b> detection <b>and</b> characterization. Geoscience & EngineeringCivil Engineering and Geoscience...|$|R
5000|$|The <b>porous</b> medium <b>and</b> <b>fractures</b> (or macropores), if present, are non-deformable.|$|R
5000|$|Flow <b>and</b> Transport in <b>Porous</b> Media <b>and</b> <b>Fractured</b> Rock (1995); {{second edition}} (2011).|$|R
50|$|Geyser activity, {{like all}} hot spring activity, {{is caused by}} surface water {{gradually}} seeping down through the ground until it meets rock heated by magma. The geothermally heated water then rises back toward the surface by convection through <b>porous</b> <b>and</b> <b>fractured</b> rocks. Geysers differ from non-eruptive hot springs in their subterranean structure; many consist of a small vent at the surface connected {{to one or more}} narrow tubes that lead to underground reservoirs of water and pressure tight rock.|$|E
50|$|Under {{the action}} of stress {{conditions}} and high overburden pressure occurs {{a significant reduction in}} permeability in the near wellbore zone, in some cases close to zero. Oil or gas flow can not penetrate to the well. Traditional methods of opening the productive layer formation (cumulative, jet perforation, sand jet perforation, abrasive jetting perforation and other similar methods) did not consider this complicated situation in the near-well zone and therefore was not the effective. <b>Porous</b> <b>and</b> <b>fractured</b> formations are subjected to compression, that deforms the rock mass and reduces its permeability. The greater the depth, the stronger the effect can be.|$|E
5000|$|Finite Element {{programs}} are more flexible in design (triangular elements vs. the block elements most finite difference models use) {{and there are}} some programs available (SUTRA, a 2D or 3D density-dependent flow model by the USGS; Hydrus, a commercial unsaturated flow model; FEFLOW, a commercial modelling environment for subsurface flow, solute and heat transport processes; OpenGeoSys, a scientific open-source project for thermo-hydro-mechanical-chemical (THMC) processes in <b>porous</b> <b>and</b> <b>fractured</b> media; COMSOL Multiphysics (FEMLAB) a commercial general modelling environment), FEATool Multiphysics, an easy to use Matlab simulation toolbox, and Integrated Water Flow Model (IWFM), but they are still not as popular in with practicing hydrogeologists as MODFLOW is. Finite element models are more popular in university and laboratory environments, where specialized models solve non-standard forms of the flow equation (unsaturated flow, density dependent flow, coupled heat and groundwater flow, etc.) ...|$|E
40|$|This report gives a {{detailed}} description of work at Los Alamos that will help resolve geochemical issues pertinent to siting a high-level nuclear waste repository in tuff at Yucca Mountain, Nevada. It is necessary to understand the properties and setting of the host tuff because this rock provides the first natural barrier to migration of waste elements from a repository. The geochemistry of tuff is being investigated with particular emphasis on retardation processes. This report addresses the various aspects of sorption by tuff, physical and chemical makeup of tuff, diffusion processes, tuff/groundwater chemistry, waste element chemistry under expected repository conditions, transport processes involved in <b>porous</b> <b>and</b> <b>fracture</b> flow, <b>and</b> geochemical and transport modeling...|$|R
40|$|In a porous medium {{the fluid}} flux and the {{electric}} current density are coupled, {{so that the}} streaming potentials are generated by fluids moving through <b>porous</b> media <b>and</b> <b>fractures.</b> These electrokinetic phenomena are induced by the relative motion between the fluid and the rock {{because of the presence}} of ions within water. Both steady-state and transient flui...|$|R
50|$|FEFLOW (Finite Element {{subsurface}} FLOW system) is {{a computer}} program for simulating groundwater flow, mass transfer and heat transfer in <b>porous</b> media <b>and</b> <b>fractured</b> media. The program uses finite element analysis to solve the groundwater flow equation of both saturated and unsaturated conditions as well as mass and heat transport, including fluid density effects and chemical kinetics for multi-component reaction systems.|$|R
50|$|Graf 2005 {{incorporated}} {{heat transport}} within the saturated-zone flow regime into HydroGeoSphere together with temperature-dependent fluid properties, such as viscosity and density. The model’s capability was successfully demonstrated {{for the case}} of thermohaline flow and transport in <b>porous</b> <b>and</b> <b>fractured</b> porous media and Therrien, 2007. This work extends the model’s capability to include thermal energy transport in the unsaturated zone and in the surface water, which is considered a key step in the linkage between the atmospheric and hydrologic systems. Surface heat fluxes from atmospheric inputs are an important source/sink of thermal energy, especially to the surface water system. As such, surface heat fluxes across the land surface were also incorporated into HydroGeoSphere. A complete description of the physical processes and governing flow and solute transport equations that {{form the basis of}} HydroGeoSphere can be found in Therrien et al. 2007 and therefore will not be presented here.|$|E
50|$|Minette of the Navajo Volcanic Field intruded and was {{extruded}} {{through the}} Chuska Sandstone. Minette {{makes up the}} two highest points, Roof Butte and Matthews Peak. A maar complex, containing pyroclastic and extrusive minette, is exposed along New Mexico Highway 134 in Narbona Pass (Brand et al., 2008). Argon-argon dating of four minette samples at Narbona Pass yielded consistent ages of 25 million years. Very little oil has been produced in Arizona, and much of that production has come from a minette sill, the reservoir rock of the Dineh-bi-Keyah field in the northwestern Chuska Mountains near Roof Butte. The sill is intruded into lower Pennsylvanian sedimentary rocks. The producing rock is both <b>porous</b> <b>and</b> <b>fractured,</b> and it is characterized by large poikilitic sanidine grains with inclusions of diopsidic augite and biotite: potassium-argon dating of the biotite yielded 25.7 million years. This pulse of magmatism at about 25 million years may have been accompanied by uplift of the Defiance-Chuska high {{in addition to the}} uplift during the Laramide orogeny.|$|E
50|$|Yortsos’ {{research}} and teaching interests are in the general areas of fluid flow, transport and reaction processes in <b>porous</b> <b>and</b> <b>fractured</b> media. He has supervised 27 Ph.D. theses and 8 post-doctoral researchers, and was the external examiner in seven Ph.D. theses, at the University of California, Berkeley; Alberta University, Canada; University of Bergen, Norway; University of Paris VI and University of Paris XI, France; and at Delft University, the Netherlands.The {{author of more than}} 145 refereed publications, Yortsos has given more than 120 invited talks and presented more than 80 conference papers. Included in his publications are studies of steam injection, heat transfer, in-situ combustion and thermal recovery processes in porous media; the development of analytical solutions to mathematical models of transport in porous media; viscous flow instabilities in porous media and Hele-Shaw cells; viscous flows in constricted geometries; filtration and formation damage in porous media; application of percolation theory to immiscible displacement, adsorption and reaction processes in porous media; application of fractal geometry to the identification of parameters in the subsurface; the evolution of gas in phase change in porous media, as in boiling and related geothermal problems; the modeling of mass transfer in porous media with application to soil remediation; and the application of optimization methods in subsurface flows.|$|E
40|$|In this {{standard}} reference of the field, theoretical and experimental approaches to flow, hydrodynamic dispersion, and miscible displacements in <b>porous</b> media <b>and</b> <b>fractured</b> rock are considered. Two different approaches are discussed and contrasted with each other. The first approach {{is based on}} the classical equations of flow and transport, called 'continuum models'. The second approach is based on modern methods of statistical physics of disordered media; that is, on 'discrete models', which have become increasingly popular over the past 15 years. The book is unique in its scope, since (1) th...|$|R
40|$|AbstractThe {{material}} discontinuity profile {{along the}} separation surface between the liquid and solid phases {{may represent a}} difficulty for the numerical solutions in studies of groundwater flow and contaminant transport in <b>porous</b> media <b>and</b> <b>fractured</b> systems. The present paper focuses on the dispersion of an hydrosoluble pollutant where the numerical procedures are required to describe the discontinuity of the concentration profile {{and at the same}} time preserve the continuity of the mass flux. The analysis shows that, whenever the use of shifted computational grid offers the possibility of a particularly elegant approach, the use of nonshifted computational grid should be preferred...|$|R
40|$|Abstract: Air {{pressure}} in coastal unsaturated aquifers fluctuates with sea tides, {{as does the}} groundwater level. Tide-induced air pressure fluctuations in coastal subsurface systems, however, are not well addressed in literature. Significant diurnal air pressure fluctuations are observed below the asphalt pavement in a coastal reclamation area of Hong Kong. A two-dimensional cross-sectional model is built to describe the air-water two-phase flow in the unsaturated zone of the area. TOUGH 2, a general-purpose numerical simulation program for multi-dimensional fluid and heat flows of multiphase, multicomponent fluid mixtures in <b>porous</b> <b>and</b> <b>fracture</b> media, is used to obtain the numerical solutions. The numerical simulation reveals that the significant air pressure fluctuation results {{from a combination of}} various factors such as asphalt pavement of extremely low permeability, soil structures of the reclamation area, and rainfall intensity during spring tides. Numerical simulation also reveals that the air pressure is approximately proportional to the tidal rate. A great amplitude of the sea level fluctuation will not necessarily lead to high air pressure, if the sea level changes slowly. Coastal unsaturated zones inhale and exhale as the tidal level falls and rises. The paper goes on to discuss various engineering and environmental implications of air pressure fluctuations in coastal aquifers...|$|R
40|$|This paper {{presents}} {{a study of}} non-Darcy fluid flow through <b>porous</b> <b>and</b> <b>fractured</b> rock, which may occur near wells during high-flux injection of waste fluids into underground formations. Both numerical and analytical models are used in this study. General non-Darcy flow is described using the Forchheimer equation, implemented in a three-dimensional, multiphase flow reservoir simulator. The non-Darcy flow through a fractured reservoir is handled using a general dual continuum approach, covering commonly used conceptual models, such as double porosity, dual permeability, explicit fracture, etc. Under single-phase flow conditions, an approximate analytical solution, {{as an extension of}} the Warren-Root solution, is discussed. The objectives of this study are (1) to obtain insights into the effect of non-Darcy flow on transient pressure behavior through <b>porous</b> <b>and</b> <b>fractured</b> reservoirs and (2) to provide type curves for well test analyses of non-Darcy flow wells. The type curves generated include various types of drawdown, injection, and buildup tests with non-Darcy flow occurring in <b>porous</b> <b>and</b> <b>fractured</b> reservoirs. In addition, non-Darcy flow into partially penetrating wells is also considered. The transient-pressure type curves for flow in fractured reservoirs are based on the double-porosity model. Type curves provided in this work for non-Darcy flow in <b>porous</b> <b>and</b> <b>fractured</b> reservoirs will find their applications in well test interpretation using a type-curve matching technique...|$|E
40|$|A {{numerical}} method {{as well as}} {{a theoretical}} study of non-Darcy fluid flow of through <b>porous</b> <b>and</b> <b>fractured</b> reservoirs is described. The non-Darcy flow is handled in a three-dimensional, multiphase flow reservoir simulator, while the model formulation incorporates the Forchheimer equation for describing single-phase or multiphase non-Darcy flow and displacement. The numerical scheme has been verified by comparing its results against those of analytical methods. Numerical solutions are used to obtain some insight into the physics of non-Darcy flow and displacement in reservoirs. In addition, several type curves are provided for well-test analyses of non-Darcy flow to demonstrate a methodology for modeling this type of flow in <b>porous</b> <b>and</b> <b>fractured</b> rocks, including flow in geothermal reservoirs...|$|E
40|$|The {{purpose of}} this report is to provide all {{software}} baseline documents necessary for the software qualification of ITOUGH 2. ITOUGH 2 is a computer program providing inverse modeling capabilities for TOUGH 2. TOUGH 2 is a numerical simulation code for multi-dimensional coupled fluid and heat flow of multiphase, multicomponent fluid mixtures in <b>porous</b> <b>and</b> <b>fractured</b> media...|$|E
30|$|In dual-porosity/dual-permeability approach, Kazemi et al. (1976) {{developed}} a three-dimensional numerical simulator for water/oil system in fractured reservoirs. The equations used to simulate two-phase flow are extensions of Warren and Root’s (1963) single-phase flow. The numerical model accounted for gravity, viscous, and capillary forces. Governing equations for matrix <b>porous</b> media <b>and</b> <b>fractures</b> are solved separately by Gauss–Seidel iterative technique using finite difference method. In this approach, the <b>fracture</b> pressure <b>and</b> water saturations in <b>fracture</b> <b>and</b> the matrix pressure and water saturation in matrix are solved iteratively. This process is repeated until a certain convergence is achieved. Kazemi et al. (1976) did not included the gravity term, {{and the same}} capillary pressure curve was used for both <b>fracture</b> <b>and</b> matrix systems.|$|R
3000|$|The case of {{fracture}} diversion {{away from}} permeable porous flow {{is more difficult}} because of the much greater contrasting effective permeabilities. For example, if two competing fractures (Fig.  1 a) have a width ratio w [...] l /w [...] s [...] of 10, the ratio of permeabilities is 100. For <b>fracture</b> <b>and</b> matrix (Fig.  1 b), the effective permeability ratio is higher—this can be as much (see “Appendix”) as 105. Fractured oil fields typically have dual porosity structure derived from <b>porous</b> matrix <b>and</b> <b>fractures,</b> respectively (van Golf-Racht 1982). Intergranular porosity is associated with primary matrix permeability K m. Secondary porosity arises from <b>fractures</b> <b>and</b> has an secondary (intrinsic) fracture permeability K f defined by Eq. (1). (Occasionally one sees references to an effective (conventional) fracture permeability which is a spatial average over a matrix block containing a fracture—see “Appendix”) [...]...|$|R
40|$|International audienceIn a porous medium {{the fluid}} flux and the {{electric}} current density are coupled, {{so that the}} streaming potentials are generated by fluids moving through <b>porous</b> media <b>and</b> <b>fractures.</b> These electrokinetic phenomena are induced by the relative motion between the fluid and the rock {{because of the presence}} of ions within water. Both steady-state and transient fluid flow can induce electrokinetics phenomena. It has been proposed to use this electrokinetic coupling to detect preferential flow paths, to detect faults and contrast in permeabilities within the crust, and to deduce hydraulic conductivity. This chapter proposes a comprehensive review of the electrokinetic coupling in rocks and sediments and a comprehensive review of the different approaches to deduce hydraulic properties in various contexts...|$|R
40|$|Natural gas {{is mostly}} formed from plankton—tiny water-dwelling organisms, {{including}} algae and protozoans—that accumulated {{on the ocean}} floor as they died. These organisms were slowly buried and compressed under layers of sediment. Over long periods of time, the pressure and heat generated by overlying sediments converted this organic material into natural gas. Natural gas frequently migrates through <b>porous</b> <b>and</b> <b>fractured</b> reservoir rock with petroleum and subsequently accumulates in underground reservoirs. Because natural gas and petroleum are formed by similar natural processes, these two hydrocarbons are often found together in underground reservoirs...|$|E
40|$|This report {{documents}} the iTOUGH 2 module EOS 3 nn, developed for modeling two-phase isothermal flow of a non-Newtonian liquid and a non-condensible gas in multidimensional, <b>porous</b> <b>and</b> <b>fractured</b> geologic media. This document supplements the TOUGH 2 and iTOUGH 2 user s guides {{and is therefore}} not a self-contained manual. It presents information on the physical processes modeled and the mathematical and numerical methods used. Also included are two sample problems for code testing and benchmarking. Modeling scenarios and approaches are discussed to illustrate problem setup and usage of the EOS 3 nn module...|$|E
40|$|Coupled {{modeling}} of subsurface multiphase fluid and heat flow, solute transport and chemical reactions {{can be used}} for the assessment of acid mine drainage remediation, mineral deposition, waste disposal sites, hydrothermal convection, contaminant transport, and groundwater quality. Here they present a numerical simulation model, TOUGHREACT, which considers non-isothermal multi-component chemical transport in both liquid and gas phases. A wide range of subsurface thermo-physical-chemical processes is considered. The model can be applied to one-, two- or three-dimensional <b>porous</b> <b>and</b> <b>fractured</b> media with physical and chemical heterogeneity. The model can accommodate any number of chemical species present in liquid, gas and solid phases. A variety of equilibrium chemical reactions is considered, such as aqueous complexation, gas dissolution/exsolution, cation exchange, and surface complexation. Mineral dissolution/precipitation can proceed either subject to local equilibrium or kinetic conditions. The coupled model employs a sequential iteration approach with reasonable computing efficiency. The development of the governing equations and numerical approach is presented along with the discussion of the model implementation and capabilities. The model is verified {{for a wide range of}} subsurface physical and chemical processes. The model is well suited for flow and reactive transport in variably saturated <b>porous</b> <b>and</b> <b>fractured</b> media. In the second of this two-part paper, three applications covering a variety of problems are presented to illustrate the capabilities of the model...|$|E
30|$|The {{limitations}} of dual-porosity/permeability approach are as follow: (1) the fluid distribution within the matrix blocks remains constant during the simulation period, (2) the model cannot {{be applied to}} disconnected and discrete fratured (oriented <b>fractures)</b> media <b>and</b> (3) a small number of large-scale fractures can be considered for flow simulation. Therefore, the developed numerical model presented in this paper overcomes all above mentiond limitations by considering fluid flows through matrix <b>porous</b> media <b>and</b> discrete <b>fractures.</b>|$|R
40|$|Reinjection of {{geothermal}} waste waters {{has become}} an important topic of interest for industry {{as well as for}} research. The environmental concerns due to chemical composition of geothermal waste waters had urged the industry to dispose it underground. In several field applications no interference due to thermal front breakthrough was observed on the other hand some cases are reported where reinjection had caused severe declines in energy production due to unexpected breakthrough of injected water. Several analytical and numerical studies are available where the effect of fractures on the movement of thermal front are discussed. It was shown that when the conduction heat transfer from matrix to fracture dominates, retardation of the thermal front movement will be observed. Bodvarsson and Pruess considered the above problem in a five-spot well pattern. They observed as the amount of fluid injected reaches the amount produced, the long-term energy output of the system increases. Pruess in his study compares the behavior of <b>porous</b> medium <b>and</b> <b>fractured</b> medium in terms of pressure decline due to production. Temperature and pressure profiles are presented between an injector and a producer where heating of the injected water in <b>porous</b> medium <b>and</b> in <b>fractured</b> medium with small fracture spacing was high compared to a larger fracture spacing. Such observations from the numerical studies were checked against some limited field examples. However understanding of the injection effects in fractured reservoirs is limited. This work presents the results of laboratory experiments where effects of reinjection on temperature and pressure behavior of a <b>porous</b> medium <b>and</b> a <b>fractured</b> medium were investigated. The porous medium was a crushed limestone pack, with 10 mm average particle size, packed in a 3 -D box model where injection and production ports are located on the diagonal ends simulating a five-spot pattern. The fractured medium was made from uniformly cut marble blocks packed in such a way to permit uniform fracture geometry. The pressure and temperature response of both models are analyzed as a function of (1) depth of injection and production; and (2) injection rate where 20 C injection water is injected into 110 C reservoir...|$|R
40|$|The paper gives {{a general}} view on {{groundwater}} for the watershed of the Tundja that is transboundary river. Several known cases of surface water – groundwater interaction are presented. Some {{specific aspects of}} groundwater regime are concerned. For the purpose of implementation of the EU Water Framework Directive, groundwater bodies in Bulgaria have been delineated together with their initial characterization. Groundwater in <b>porous,</b> karst <b>and</b> <b>fractured</b> rock media is present within the watershed of the Tundja River. The purpose of the paper is harmonization of {{a vast amount of}} data to obtain {{a better understanding of the}} aquifer systems for the watershed of the Tundja River. The study is accomplished at basin-scale. Such approach is useful for the water resources management, as the basin is considered as a unity...|$|R
40|$|Smoothed {{particle}} hydrodynamics (SPH) is a Lagrangian method {{based on}} a meshless discretization of partial differential equations. In this review, we present SPH discretization of the Navier-Stokes and advection-diffusion-reaction equations, implementation of various boundary conditions, and time integration of the SPH equations, and we discuss applications of the SPH method for modeling pore-scale multiphase flows and reactive transport in <b>porous</b> <b>and</b> <b>fractured</b> media. United States. Dept. of Energy. Office of Advanced Scientific Computing Research (Early Career Award, “New Dimension Reduction Methods and Scalable Algorithms for Multiscale Nonlinear Phenomena,” and Collaboratory on Mathematics for Mesoscopic Modeling of Materials (CM 4) ...|$|E
40|$|Coupled {{modeling}} of subsurface multiphase fluid and heat flow, solute transport and chemical reactions {{can be used}} for the assessment of acid mine drainage remediation, waste disposal sites, hydrothermal convection, contaminant transport, and groundwater quality. We have developed a comprehensive numerical simulator, TOUGHREACT, which considers non-isothermal multi-component chemical transport in both liquid and gas phases. A wide range of subsurface thermo-physical-chemical processes is considered under various thermohydrological and geochemical conditions of pressure, temperature, water saturation, and ionic strength. The code can be applied to one-, two- or three-dimensional <b>porous</b> <b>and</b> <b>fractured</b> media with physical and chemical heterogeneity...|$|E
40|$|We have {{developed}} a numerical model to represent the effect of injection test in unsaturated <b>porous</b> <b>and</b> <b>fractured</b> rock mass. The test was conducted at the LSBB (Laboratoire Souterrain à Bas Bruit) site close to Rustrel, Vaucluse, France {{in the field of}} the French ANR project called 'HPPP-CO 2 '. The results underline the impact of fractures on the hydro-mechanical response of the rock mass. Indeed fractures allow a faster dissipation of the water pressures and stress variations induced by the water injection. Back analysis lead us to also estimate the rock mass intrinsic permeability and compressibility of the injected laye...|$|E
30|$|Eclipse- 100 {{is used as}} a dual porosity/permeability {{approach}} to simulate fluid flow in naturally fractured reservoirs. The dual porosity/permeability approach has a lot of limitations which include (1) the fluid distribution within the matrix blocks remains constant during the simulation period, (2) the model cannot be applied to disconnected <b>and</b> discrete <b>fractured</b> (oriented <b>fractures)</b> media <b>and</b> a small number of large scale fractures can be considered for flow simulation. Therefore, the developed numerical model that is presented in this paper overcomes all the abovementioned limitations by account flow through matrix <b>porous</b> media <b>and</b> discrete <b>fractures</b> by taking into account all fracture properties which include <b>fracture</b> orientation, radius, <b>and</b> location.|$|R