663|135|Public
2500|$|Disadvantages of {{silicone}} hydrogels {{are that}} they are slightly stiffer and the lens surface can be hydrophobic, thus less [...] "wettable" [...] – factors that influence comfort of lens use. New manufacturing techniques and changes to multipurpose solutions have minimized these effects. A surface modification process called plasma coating alters the lens surface's hydrophobic nature. Another technique incorporates internal <b>rewetting</b> agents to make the lens surface hydrophilic. A third process uses longer backbone polymer chains that results in less cross linking and increased wetting without surface alterations or additive agents.|$|E
60|$|Neale swore at {{his friend}} and then he fell asleep. King watched beside him, ever and anon <b>rewetting</b> the hot brow.|$|E
5000|$|MODFLOW-NWT(version 1.1.3, August 1, 2017), Newton {{formulation}} {{for solving}} problems involving drying and <b>rewetting</b> nonlinearities of the unconfined groundwater-flow equation.|$|E
40|$|Heat flux induced dryout of thin liquid {{films on}} an {{inclined}} copper plate was studied. <b>Rewet</b> of the dried out area is also considered. The four fluids used {{to form the}} thin films exhibited very different dryout and <b>rewet</b> characteristics. The contact angle and hysteresis effects {{were found to be}} important, but they must be considered in context with other parameters. No single variable was found to independently determine the pattern of dryout and <b>rewet...</b>|$|R
40|$|Climate {{change is}} {{considered}} to alter the functioning of boreal peatland ecosystems, but the vulnerability of pristine, <b>rewetted</b> and drained peatlands to climate change in temperate regions is unknown. We measured carbon (C) gas exchange during wet (2009) and dry (2010) growing periods in pristine, drained and <b>rewetted</b> sites in mountain bogs in the Bohemian Forest (Czech Republic). Wetter lawns with sedges and drier habitats dominated by ericaceous shrubs were distinguished and studied at each site. Methane (CH 4) emissions, which decreased in the order pristine > <b>rewetted</b> > drained, were generally lower during the 2010 growing period than in 2009 {{as a consequence of}} a drought. During the drought in 2010, photosynthesis (PG) in the drier habitats with shrub vegetation increased on pristine and <b>rewetted</b> sites, while total respiration (RECO) remained the same. Communities dominated by sedges maintained similar rates of PG and RECO during both growing periods. Generally, this led to higher C accumulation during the drought on pristine and <b>rewetted</b> bogs. At the drained bog site, the decreased water table (WT) during the drought led to increased PG and RECO, such that the net C accumulation was similar in the two years. Drained peatlands may be more threatened by future climate change than pristine or <b>rewetted</b> peatlands because of their limited buffering capacity for decreased WT. In the case of further decreases in WT, they could lose the peatland vegetation and functions that have partly persisted through decades of drainage...|$|R
40|$|Continuous {{development}} and {{improvement of the}} modern disposable diaper is crucial for the optimization of product performance. Several methods are used for evaluation and improvements to sustain high quality diapers being produced. The aim of this thesis {{was to develop a}} new test method that follows liquid distribution in real time by combining two pre-existing measurement systems. <b>Rewet</b> is the amount of liquid that returns to the surface of diapers when subjected to pressure. Distribution of absorption material is examined by exposing the product core to radiation. These two measurement systems don’t convey anything about the course of the liquid in the diaper when tested separately. This method development is meant to be beneficial for research and development purposes at SCA, working as a complement to the pre-existing methods being used in the laboratory. The following questions are of interest: • Can the <b>rewet</b> test method be performed on a baby diaper while simultaneously exposing the product core to radiation so the course of the liquid can be followed in real time? • Is the liquid distribution (wet area) affected by different product compositions e. g. SAP or thickness? By modifying the current methods, <b>rewet</b> can be performed inside the x-ray equipment while studying the consistency of absorption material and following the liquid behavior in the product core. The developed method was verified by testing on handmade products with different compositions. The developed method’s <b>rewet</b> value has proved to be equivalent to the one tested outside, showing {{no significant difference between the}} two...|$|R
50|$|Barnard, R.L., C.A. Osborne, M.K. Firestone. 2013. Responses of soil {{bacterial}} and fungal {{communities to}} extreme desiccation and <b>rewetting.</b> ISME J. 7: 2229-2241.|$|E
50|$|Use only sterile {{products}} {{recommended by}} your optometrist {{to clean and}} disinfect your lenses. Saline solution and <b>rewetting</b> drops are not designed to disinfect lenses.|$|E
50|$|Drops for {{red eyes}} {{can make the}} eyes drier.If wearing contact lenses, <b>rewetting</b> or {{lubricating}} drops specifically for contact lenses should be used. Other types of drops may contain ingredients that damage contact lenses.|$|E
30|$|Hot spot {{model was}} first {{proposed}} by Unal et al. [68]. This model {{suggests that the}} temperature {{at the center of}} a dry patch on the heater surface is an important parameter that can trigger CHF. Ability of cooling liquid to <b>rewet</b> the heated dry area should make the strong impact on CHF. In accordance with this idea, Theofanous and Dinh [30] proposed the modified hot spot model with focus on the micro-hydrodynamics of the solid-liquid-vapor line at the boundary of a hot/dry spot. In their model, CHF occurs when the evaporation recoil force (which drives the liquid meniscus to recede) becomes larger than the surface tension force (which drives the meniscus to advance and <b>rewet</b> the hot/dry spot).|$|R
40|$|Hydrophytes can be {{cultivated}} on <b>rewetted</b> drained peatland {{and used}} as substrate to produce biogas which can be utilized as vehicle fuel. This results in less GHG from <b>rewetted</b> peat soils {{and at the same}} time leads to renewable energy that substitutes fossil fuels. A literature research was conducted to study the impact of different species (Phragmites australis = Pa and Typha latifolia=Tl) and soil nutrient status on GHG emissions of <b>rewetted</b> fens in N Europe. In addition, biogas production and the exposure to different N-load were investigated for these species. Pa has a methane yield of 235 ml CH 4 g- 1 VS- 1 regardless the input of N whereas Tl needs to be fertilized in order to produce high methane yield (204 ml CH 4 g- 1 VS- 1).  Pa sequesters more CO 2 and converts it into biomass which makes it a C-sink but by using the GWP factor to convert CH 4 into CO 2 -equivalents, Pa becomes as Tl a GHG-source. Still Pa’s GHG emissions are lower than Tl’s if water depth is maximum 20 cm. Pa also contributes to peat formation and can cope with water fluctuations. ...|$|R
50|$|Mineral soil seedbeds {{are more}} {{receptive}} than the undisturbed forest floor, and are generally moister and more readily <b>rewetted</b> than the organic forest floor. However, exposed mineral soil, {{much more so}} than organic-surfaced soil, is subject to frost heaving and shrinkage during drought. The forces generated in soil by frost or drought are quite enough to break roots.|$|R
50|$|Its {{formula of}} 5% {{glutaraldehyde}} and 35% HEMA (hydroxyethyl methacrylate) in water {{is used to}} help control both hypersensitive dentin and {{reduce the incidence of}} post-operative sensitivity in restorative dentistry procedures. It’s also useful as a cavity disinfectant, a <b>rewetting</b> agent and an adhesion promoter (when combined with most dentin bonding systems).|$|E
50|$|Plinthite {{does not}} harden irreversibly {{as a result}} of a single cycle of drying and <b>rewetting.</b> After a single drying, it will remoisten and then can be {{dispersed}} in large part if one shakes it in water with a dispersing agent. In a moist soil, plinthite is soft enough to be cut with a spade. After irreversible hardening, it is no longer considered plinthite but is called ironstone. Indurated ironstone materials can be broken or shattered with a spade but cannot be dispersed if one shakes them in water with a dispersing agent.|$|E
50|$|The {{skin from}} buffalo, deer, elk or cattle from which most rawhide {{originates}} is prepared by removing all fur, meat and fat. The hide is then usually stretched over a frame before being dried. The resulting material is hard and translucent. It can {{be shaped by}} <b>rewetting</b> and forming before being allowed to thoroughly re-dry. It can be rendered more pliable by 'working', i.e. bending repeatedly in multiple directions, often by rubbing it over a post, sometimes traditionally by chewing. It may also be oiled or greased for a degree of waterproofing.|$|E
50|$|Tanning is {{a process}} that stabilizes the protein of the raw hide or skin so it does not putrefy, making it {{suitable}} {{for a wide variety of}} end applications. The principal difference between raw and tanned hides is that raw hides dry out to form a hard, inflexible material that, when <b>rewetted</b> (or wetted-back) putrefy, while tanned material dries to a flexible form that does not become putrid when wetted-back.|$|R
50|$|Air backwashing, where {{pressurized}} {{air in the}} permeate side of the membrane build up and release a significant pressure within {{a very short period}} of time. Membrane modules therefore need to be in a pressurised vessel coupled to a vent system. Air usually does not go through the membrane. If it did, the air would dry the membrane and a <b>rewet</b> step would be necessary, by pressurizing the feed side of the membrane.|$|R
40|$|The {{changes in}} the amounts and {{composition}} of dissolved organic matter (DOM) following long-term peat restoration are unknown, although this fraction of soil organic matter affects many processes in such ecosystems. We addressed this lack of knowledge by investigating a peatland in south-west Germany that was partly <b>rewetted</b> 20 years ago. A successfully restored site and a moderately drained site were compared, where the mean groundwater levels were close to the soil surface and around 30 cm below surface, respectively. The concentrations of dissolved organic carbon (DOC) at 4 depths were measured over one year. The specific absorbance was measured at 280 nm and the fluorescence spectra were {{used to describe the}} aromaticity and complexity of DOM. The investigations showed that 20 years of peatland restoration was able to create typical peatland conditions. The <b>rewetted</b> site had significantly lower DOC concentrations at different depths compared to the drained site. The specific UV absorbance showed that the <b>rewetted</b> site had a lower level of aromatic DOM structures. The decreasing specific UV absorbance might indicate an increasing contribution of small organic molecules to DOM. It was hypothesized that the decreasing DOC concentrations and the relative enrichment of small, readily degradable organic molecules, reflect the slower decomposition of organic matter after the re-establishment of the water table. Seasonal trends provided substantial evidence for our hypothesis that reduced DOC concentrations were caused by reduced peat decomposition. During summer, the elevated DOC values were accompanied by an increase in DOM aromaticity and complexity. Our results demonstrated a close link between C mineralization and DOC production. We concluded that long-term peatland restoration {{in the form of the}} successful re-establishment of the water table might result in reduced peat decomposition and lower DOC concentrations. The restoration of peatlands seems to have a positive impact on C sequestration...|$|R
5000|$|Disadvantages of {{silicone}} hydrogels {{are that}} they are slightly stiffer and the lens surface can be hydrophobic, thus less [...] "wettable" [...] - factors that influence comfort of lens use. New manufacturing techniques and changes to multipurpose solutions have minimized these effects. A surface modification process called plasma coating alters the lens surface's hydrophobic nature. Another technique incorporates internal <b>rewetting</b> agents to make the lens surface hydrophilic. A third process uses longer backbone polymer chains that results in less cross linking and increased wetting without surface alterations or additive agents.|$|E
50|$|This fern is {{well known}} as a resurrection plant due to its ability to {{withstand}} desiccation and subsequently recover on <b>rewetting.</b> It {{has been shown that}} this is in part due to its high concentrations of phenolic compounds such as chlorogenic acid and caffeic acid which allow it to negate the destructive capacity of the reactive oxygen species generated by the drying process; the concentrations of these phenols decrease during the dehydration process. Enzymes such as peroxidase and polyphenol oxidase have also been shown to be important in allowing this fern to cope with desiccation; the concentrations of these enzymes increase when the fern is subjected to water shortages.|$|E
50|$|The {{colloidal}} probes {{are normally}} fabricated by gluing a colloidal particle to a tip-less cantilever with a micromanipulator in air. The subsequent <b>rewetting</b> of the probe {{may lead to}} the formation of nanosized bubbles on the probe surface. This problem can be avoided by attaching the colloidal particles under wet conditions in AFM fluid cell to appropriately functionalized cantilevers. While the colloidal probe technique is mostly utilized in the sphere-plane geometry, it can be also used in the sphere-sphere geometry. The latter geometry further requires a lateral centering of the two particles, which can be either achieved with an optical microscope or an AFM scan. The results obtained in these two different geometries can be related with the Derjaguin approximation.|$|E
40|$|A transient, {{one-dimensional}} {{numerical code}} is developed {{to model the}} liquid motion in an axial groove with square cross section. Axial variation in liquid level, shear stress and heat transfer between the groove wall and the liquid, evaporation and transient body forces are accounted for in the model. Dryout and <b>rewet</b> of the groove are allowed; the front location is determined numerically using conservation of mass and linear extrapolation. Several numerical test results are presented and discussed...|$|R
50|$|Gouache has a {{considerable}} history going back over 600 years. It {{is similar to}} watercolor {{because it can be}} <b>rewet</b> and the paint can become infused with its paper support. It can also form a superficial layer like acrylic or oil paint. Also like watercolor, gouache dries to a matte finish. It is similar to acrylic or oil paints in that it is normally used in an opaque painting style. Many manufacturers of watercolor paints also produce gouache and the two can easily be used together.|$|R
40|$|The {{restoration}} of peatlands {{is an important}} strategy to counteract subsidence and loss of biodiversity. However, responses of important microbial soil processes are poorly understood. We assessed functioning, diversity and spatial organization of methanotrophic communities in drained and <b>rewetted</b> peat meadows with different water table management and agricultural practice. Results show that the methanotrophic diversity was similar between drained and <b>rewetted</b> sites with a remarkable dominance of the genus Methylocystis. Enzyme kinetics depicted no major differences, indicating flexibility in the methane (CH 4) concentrations {{that can be used}} by the methanotrophic community. Short-term flooding led to temporary elevated CH 4 emission but to neither major changes in abundances of methane-oxidizing bacteria (MOB) nor major changes in CH 4 consumption kinetics in drained agriculturally used peat meadows. Radiolabeling and autoradiographic imaging of intact soil cores revealed a markedly different spatial arrangement of the CH 4 consuming zone in cores exposed to near-atmospheric and elevated CH 4. The observed spatial patterns of CH 4 consumption in drained peat meadows with and without short-term flooding highlighted the spatial complexity and responsiveness of the CH 4 consuming zone upon environmental change. The methanotrophic microbial community is not generally altered and harbors MOB that can cover a large range of CH 4 concentrations offered due to water-table fluctuations, effectively mitigating CH 4 emission...|$|R
50|$|Excess {{moisture}} in concrete {{is defined by}} that amount of moisture emitting from the concrete subfloor that exceeds the amount allowed by the flooring manufacturer. This condition occurs when the flooring is installed before {{the water in the}} concrete mix that is not needed for hydration (strengthening) has had adequate time to evaporate. Causes of this condition include a construction schedule that does not allow at least 28 days for the slab to dry; using too much water in the concrete mix; installing the slab without a puncture- and tear-resistant, low-permeability vapor barrier beneath it; <b>rewetting</b> of the slab due to precipitation; inadequate drying conditions, which can include air temperatures that are lower than 50°F, high humidity in the surrounding air and poor airflow; and liquid water infiltration due to external sources, such as broken pipes, irrigation, improper sloping of the landscape, condensation, cleaning and maintenance, and moisture from flooring adhesives.|$|E
50|$|Coir {{does provide}} a {{suitable}} substrate for horticultural {{use as a}} soilless potting medium. The material's high lignin content is longer-lasting, holds more water, and does not shrink off {{the sides of the}} pot when dry allowing for easier <b>rewetting.</b> This light media has advantages and disadvantages that can be corrected with the addition of the proper amendment such as coarse sand for weight in interior plants like Draceana. Nutritive amendments should also be considered. Calcium and magnesium will be lacking in coir potting mixes, so a naturally good source of these nutrients is dolomitic lime which contains both. pH is of utmost importance as coir pith tends to have a high pH after some months of use, resulting in plant stunting and multiple deficiencies. Coir has as well the disavantage of being extremely sensitive to the Leucocoprinus greenhouse fungus. The addition of beneficial microbes to the coir media have been successful in tropical green house conditions and interior spaces as well. However, {{it is important to note}} that the microbes will engage in growth and reproduction under moist atmospheres producing fruiting bodies (mushrooms).|$|E
40|$|This {{annual report}} {{summarizes}} the work accomplished on <b>rewetting</b> of monogroove heat pipe in space station. Specifically, theoretical and experimental {{investigations of the}} <b>rewetting</b> characteristics of thin liquid films over unheated and heated capillary grooved plates were performed. To investigate the effect of gravity on <b>rewetting,</b> the grooved surface was placed in upward and downward facing positions. Profound gravitational effects were observed as the <b>rewetting</b> velocity {{was found to be}} higher in the upward than in the downward facing orientation. The difference was even greater with higher initial plate temperatures. With either orientation, {{it was found that the}} <b>rewetting</b> velocity increased with the initial plate temperature. But when the temperature was raised above a <b>rewetting</b> temperature, the <b>rewetting</b> velocity decreased with the initial plate temperature. Hydrodynamically controlled and heat conduction controlled <b>rewetting</b> models were then presented to explain and to predict the <b>rewetting</b> characteristics in these two distinct regions. The predicted <b>rewetting</b> velocities were found to be in good agreement with experimental data with elevated plate temperatures...|$|E
40|$|Cultivation of {{bioenergy}} {{crops in}} <b>rewetted</b> peatland (paludiculture) is {{considered as a}} possible land use option to mitigate greenhouse gas (GHG) emissions. However, bioenergy crops like reed canary grass (RCG) can have a complex influence on GHG fluxes. Here we determined the effect of RCG cultivation on GHG emission from peatland <b>rewetted</b> to various extents. Mesocosms were manipulated to three different ground water levels (GWLs), i. e. 0, − 10 and − 20 cm below the soil surface in a controlled semi-field facility. Emissions of CO 2 (ecosystem respiration, ER), CH 4 and N 2 O from mesocosms with RCG and bare soil were measured at weekly to fortnightly intervals with static chamber techniques {{for a period of}} 1 year. Cultivation of RCG increased both ER and CH 4 emissions, but decreased the N 2 O emissions. The presence of RCG gave rise to 69, 75 and 85 % of total ER at − 20, − 10 and 0 cm GWL, respectively. However, this difference was due to decreased soil respiration at the rising GWL as the plant-derived CO 2 flux was similar at all three GWLs. For methane, 70 – 95 % of the total emission was due to presence of RCG, with the highest contribution at − 20 cm GWL. In contrast, cultivation of RCG decreased N 2 O emission by 33 – 86 % with the major reductions at − 10 and − 20 cm GWL. In terms of global warming potential, the increase in CH 4 emissions due to RCG cultivation was more than offset by the decrease in N 2 O emissions at − 10 and − 20 cm GWL; at 0 cm GWL the CH 4 emissions was offset only by 23 %. CO 2 emissions from ER were obviously the dominant RCG-derived GHG flux, but above-ground biomass yields, and preliminary measurements of gross photosynthetic production, showed that ER could be more than balanced due to the photosynthetic uptake of CO 2 by RCG. Our results support that RCG cultivation could be a good land use option in terms of mitigating GHG emission from <b>rewetted</b> peatlands, potentially turning these ecosystems into a sink of atmospheric CO 2...|$|R
40|$|A {{modified}} version of the osmotic shock technique was used to investigate HCO 3 − and OH− transport in the alga Chara corallina. Cell turgor was brought close to zero and then restored. When turgor was reduced to near the plasmolytic point using an osmoticum, little effect was observed on H 14 CO 3 − assimilation and OH− transport. However, when turgor was recovered in these cells, there was a large reduction in HCO 3 − and OH− transport activity. In contrast, when cells were air-dried to zero turgor, and <b>rewetted</b> to restore turgor, no significant effect on OH− transport was observed...|$|R
40|$|Acid sulfate soils (ASS) occur {{throughout}} Australia. The {{focus of}} this paper is coastal and estuarine ASS. Coastal ASS have formed through natural processes and are generally overlain by other soils. However, when coastal ASS are exposed to air by drainage or excavation and then <b>rewetted,</b> acid drainage water is produced. Past government policies, the high demand for living on the coast and the extensive agriculture along the coastal strip have led to disturbance and increased exposure of ASS. These have resulted in large-scale acid generation and runoff. Acid runoff causes a range of adverse impacts to the environment, coastal development, fishin...|$|R
40|$|Theoretical {{experimental}} {{investigations of}} the <b>rewetting</b> characteristics of thin liquid films over unheated and heated grooved plates were performed. Studied factors which affected the <b>rewetting</b> characteristics of the plate were mass flow rate of the <b>rewetting</b> liquid on the plate, {{the orientation of the}} plate (face up, face down or inclined) and smooth/groove surface conditions. The initial plate temperature was also varied, with experiments being performed between room temperature and 150 C. It was found that the <b>rewetting</b> velocity increased with the initial plate temperature. But when the temperature was increased further above the Leidenfrost temperature (liquid front temperature), the <b>rewetting</b> velocity decreases with the initial plate temperature. Hydrodynamically controlled and conductively controlled <b>rewetting</b> models were presented to explain and to predict the <b>rewetting</b> characteristics in these two distinct regions. Also found was a higher <b>rewetting</b> velocity when the grooved plate was placed in the face up orientation than in the face down orientation...|$|E
40|$|Although {{several studies}} {{have been made to}} {{determine}} the <b>rewetting</b> characteristics of liquid films on heated rods, tubes, and flat plates, no solutions are yet available to describe the <b>rewetting</b> process of a hot plate subjected to a uniform heating. A model is presented to analyze the <b>rewetting</b> process of such plates with and without grooves. Approximate analytical solutions are presented for the prediction of the <b>rewetting</b> velocity and the transient temperature profiles of the plates. It is shown that the present <b>rewetting</b> velocity solution reduces correctly to the existing solution for the <b>rewetting</b> of an initially hot isothermal plate without heating from beneath the plate. Numerical solutions have also been obtained to validate the analytical solutions...|$|E
40|$|Experimental {{investigation}} of the <b>rewetting</b> characteristics of a uniformly heated grooved surface was performed, the results of which are presented in this work. It was found that, for a <b>rewetting</b> fluid of 2 -propanol, the <b>rewetting</b> temperature was approx. 93 - 96 C for the upward-facing case and about 2 C lower for the downwardfacing case. When the initial plate temperature was higher than the <b>rewetting</b> temperature, the <b>rewetting</b> speed decreased with the initial plate temperature. The <b>rewetting</b> speed is also faster in the upward-facing case than in the downward-facing case for the same initial plate temperatures, which indicates a gravitational effect on <b>rewetting.</b> This trend {{is found to be}} consistent with the previously investigated end heating condition. The <b>rewetting</b> distance that is predicted by the conduction controlled model is found to be in fair agreement with the experimental data. Also, an apparatus that enables experiments to be performed in a reduced gravitational environment has been built and experiments are currently being performed. The design of this apparatus is presented along with preliminary data...|$|E
5000|$|Forest {{fires and}} peat fires are a {{recurring}} danger to Meshcheyora park. Many {{of the areas}} are quite dry during the summer, and the areas with underlying peat - a natural fuel - burn readily. To address this, the park is upgrading the water levels {{in the park and}} increasing the use of modern fire-fighting equipment and techniques. The Russian report on Ramsar wetlands noted in 2015 that [...] "The Meshchora National Park (neighboring to the Floodplains of the Oka and Pra Rivers Ramsar site) has been implementing a long-term peatland restoration program since 2003. Over 6,000 ha of degraded peatlands were <b>rewetted</b> by 2015." ...|$|R
40|$|Abstract This study {{evaluated}} {{the effect of}} matrix metalloproteinase (MMP) inhibitors - 2 % (CHX) and sodium fluoride (NaF) (5000 ppm) - on microtensile bond strength (&# 956;TBS) of composite resin to Er:YAG laser-irradiated dentin after chemical degradation of the bond interface. The occlusal surface of forty sound human molars was removed exposing the dentin surface (n= 10), which was polished, irradiated with Er:YAG laser, acid etched and dried. Twenty specimens were <b>rewetted</b> with 2 % CHX (control group) and 20 were <b>rewetted</b> with NaF (5000 ppm). The adhesive system was applied and a 4 -mm-high plateau of light-cured composite resin was built up. Resin-dentin sticks were obtained with a rectangular cross-sectional area (0. 8 - 1 mm 2) and were either stored in water at 37 ?# 61616;C for 24 h or submitted to chemical degradation. For chemical degradation, they were immersed in 10 % NaOCl aqueous solution for 5 h and rinsed in water for 1 h. The sticks were submitted to microtensile test in a mechanical testing machine at 0. 5 mm/min until failure. Fracture pattern was analyzed using SEM. &# 956;TBS values were calculated in MPa and submitted to analysis of variance ANOVA (&# 945;= 0. 05). The variance analysis showed that the 'MMP inhibitor' and 'degradation' factors (p= 0. 214 and p= 0. 093, respectively) and interaction between the factors {{were not statistically significant}} (p= 0. 143). Mixed failure predominated in all groups. In conclusion, the 2 % CHX and NaF 5000 ppm presented similar &# 956;TBS of composite resin to laser-irradiated dentin before and after chemical degradatio...|$|R